Version 4
SHEET 1 1076 680
WIRE 176 -64 -80 -64
WIRE 1072 -64 880 -64
WIRE 176 -32 176 -64
WIRE 880 -32 880 -64
WIRE 176 96 176 48
WIRE 176 96 96 96
WIRE 256 96 176 96
WIRE 880 96 880 48
WIRE 880 96 800 96
WIRE 960 96 880 96
WIRE 96 144 96 96
WIRE 256 144 256 96
WIRE 800 144 800 96
WIRE 960 144 960 96
WIRE -80 208 -80 -64
WIRE 688 208 576 208
WIRE 688 240 688 208
WIRE 800 240 800 224
WIRE 800 240 688 240
WIRE 576 272 576 208
WIRE 960 288 960 224
WIRE 960 288 688 288
WIRE 96 304 96 224
WIRE 256 304 256 224
WIRE 800 304 800 240
WIRE 960 304 960 288
WIRE 576 400 576 352
WIRE 592 400 576 400
WIRE 688 400 688 288
WIRE 688 400 592 400
WIRE 96 432 96 384
WIRE 176 432 96 432
WIRE 256 432 256 384
WIRE 256 432 176 432
WIRE 592 432 592 400
WIRE 800 432 800 384
WIRE 880 432 800 432
WIRE 960 432 960 384
WIRE 960 432 880 432
WIRE 176 464 176 432
WIRE 880 464 880 432
WIRE -80 576 -80 288
WIRE 176 576 176 544
WIRE 176 576 -80 576
WIRE -80 608 -80 576
WIRE 880 608 880 544
WIRE 1072 608 1072 -64
WIRE 1072 608 880 608
FLAG -80 608 0
FLAG -80 -64 RIN
FLAG 592 432 0
FLAG 576 208 ROUT
SYMBOL res 160 -48 R0
SYMATTR InstName R1
SYMATTR Value {Rs}
SYMBOL res 80 128 R0
SYMATTR InstName R2
SYMATTR Value {Ro+Rf}
SYMBOL res 240 128 R0
SYMATTR InstName R3
SYMATTR Value {Ro-Rf}
SYMBOL res 80 288 R0
SYMATTR InstName R4
SYMATTR Value {Ro-Rf}
SYMBOL res 240 288 R0
SYMATTR InstName R5
SYMATTR Value {Ro+Rf}
SYMBOL res 160 448 R0
SYMATTR InstName R6
SYMATTR Value {Rs}
SYMBOL current -80 288 R180
WINDOW 0 24 80 Left 2
WINDOW 3 24 0 Left 2
WINDOW 123 0 0 Left 0
WINDOW 39 0 0 Left 0
SYMATTR InstName I1
SYMATTR Value 1
SYMBOL current 576 352 R180
WINDOW 0 24 80 Left 2
WINDOW 3 24 0 Left 2
WINDOW 123 0 0 Left 0
WINDOW 39 0 0 Left 0
SYMATTR InstName I2
SYMATTR Value 1
SYMBOL res 784 128 R0
SYMATTR InstName R7
SYMATTR Value {Ro+Rf}
SYMBOL res 944 288 R0
SYMATTR InstName R8
SYMATTR Value {Ro+Rf}
SYMBOL res 944 128 R0
SYMATTR InstName R9
SYMATTR Value {Ro-Rf}
SYMBOL res 784 288 R0
SYMATTR InstName R10
SYMATTR Value {Ro-Rf}
SYMBOL res 864 -48 R0
SYMATTR InstName R11
SYMATTR Value {Rs}
SYMBOL res 864 448 R0
SYMATTR InstName R12
SYMATTR Value {Rs}
TEXT 128 -296 Left 2 !.param Ro=3k Rf=0 Rs=1k
TEXT 136 -224 Left 2 !.tran 1ms
